LTspice 24.0.12 for Windows
Circuit: * C:\Users\Mr_Dusza\Desktop\Git\PV_DC_Driver\simulations\PV_panel.asc
Start Time: Mon Dec  9 19:41:01 2024
solver = Normal
Maximum thread count: 16
tnom = 27
temp = 27
method = modified trap
Total elapsed time: 0.213 seconds.

