LTspice 24.0.12 for Windows
Circuit: * C:\Users\Mr_Dusza\Desktop\Git\PV_DC_Driver\simulations\PV_panel.asc
Start Time: Mon Oct 14 16:08:45 2024
solver = Normal
Maximum thread count: 12
tnom = 27
temp = 27
method = modified trap
Total elapsed time: 0.166 seconds.

