LTspice 24.0.12 for Windows
Circuit: * C:\Users\Mr_Dusza\Desktop\Git\PV_DC_Driver\simulations\PWM_MPPT.asc
Start Time: Mon Oct 14 16:51:41 2024
solver = Normal
Maximum thread count: 12
tnom = 27
temp = 27
method = modified trap
Direct Newton iteration for .op point succeeded.
Total elapsed time: 10.377 seconds.

